
 OpenBabel05311515513D

 21 21  0  0  0  0  0  0  0  0999 V2000
    1.1467   -2.0879   -0.4477 C   0  0  0  0  0  0  0  0  0  0  0  0
    2.5495   -1.6715   -0.1137 C   0  0  0  0  0  0  0  0  0  0  0  0
    3.1108   -1.9305    0.9439 O   0  0  0  0  0  0  0  0  0  0  0  0
    3.0722   -0.9377   -1.1700 O   0  0  0  0  0  0  0  0  0  0  0  0
    4.4675   -0.8915   -1.1413 C   0  0  0  0  0  0  0  0  0  0  0  0
    5.0571    0.2534   -0.5978 C   0  0  0  0  0  0  0  0  0  0  0  0
    6.4459    0.3763   -0.5861 C   0  0  0  0  0  0  0  0  0  0  0  0
    7.2420   -0.6375   -1.1197 C   0  0  0  0  0  0  0  0  0  0  0  0
    6.6495   -1.7733   -1.6783 C   0  0  0  0  0  0  0  0  0  0  0  0
    5.2518   -1.9079   -1.7100 C   0  0  0  0  0  0  0  0  0  0  0  0
    4.7065   -3.1142   -2.3786 C   0  0  0  0  0  0  0  0  0  0  0  0
    3.3700   -3.1473   -2.4740 O   0  0  0  0  0  0  0  0  0  0  0  0
    5.3763   -4.0195   -2.8550 O   0  0  0  0  0  0  0  0  0  0  0  0
    0.9292   -3.0380    0.0493 H   0  0  0  0  0  0  0  0  0  0  0  0
    1.0480   -2.2581   -1.5241 H   0  0  0  0  0  0  0  0  0  0  0  0
    0.4403   -1.3211   -0.1280 H   0  0  0  0  0  0  0  0  0  0  0  0
    4.4370    1.0422   -0.1812 H   0  0  0  0  0  0  0  0  0  0  0  0
    6.9087    1.2630   -0.1598 H   0  0  0  0  0  0  0  0  0  0  0  0
    8.3255   -0.5417   -1.1072 H   0  0  0  0  0  0  0  0  0  0  0  0
    7.2856   -2.5508   -2.0998 H   0  0  0  0  0  0  0  0  0  0  0  0
    3.1798   -3.9694   -2.9705 H   0  0  0  0  0  0  0  0  0  0  0  0
  1  2  1  0  0  0  0
  1 14  1  0  0  0  0
  1 15  1  0  0  0  0
  1 16  1  0  0  0  0
  2  3  2  0  0  0  0
  2  4  1  0  0  0  0
  4  5  1  0  0  0  0
  5  6  2  0  0  0  0
  5 10  1  0  0  0  0
  6  7  1  0  0  0  0
  6 17  1  0  0  0  0
  7  8  2  0  0  0  0
  7 18  1  0  0  0  0
  8  9  1  0  0  0  0
  8 19  1  0  0  0  0
  9 10  2  0  0  0  0
  9 20  1  0  0  0  0
 10 11  1  0  0  0  0
 11 12  1  0  0  0  0
 11 13  2  0  0  0  0
 12 21  1  0  0  0  0
M  END
$$$$
